# avogadro generated ORCA input file 
# Basic Mode
#
! wB97X-D3 OPT def2-TZVP def2/J CPCM
%cpcm
  epsilon 3
end
%pal
 nprocs 4
end

* xyz 0 1
   C       -8.60948        2.37916        0.37799
   C       -8.54154        1.14804       -0.30795
   C       -7.43337        3.04110        0.76968
   H       -9.57317        2.81686        0.60357
   C       -7.29718        0.56476       -0.60774
   H       -9.45429        0.64785       -0.60462
   C       -6.21157        2.44035        0.45543
   H       -7.48105        3.98605        1.29467
   C       -6.14088        1.24451       -0.20444
   H       -7.26031       -0.37951       -1.13095
   N       -4.96645        2.87848        0.72251
   N       -4.84259        0.90416       -0.36470
   C       -4.13267        1.92643        0.20426
   C       -4.64786        4.10225        1.46292
   H       -5.13543        4.06628        2.45978
   H       -5.02291        4.98729        0.90719
   H       -3.56177        4.20932        1.64405
   C       -4.32272       -0.27895       -1.05877
   H       -5.13710       -0.89539       -1.48466
   H       -3.76268       -0.93150       -0.36543
   H       -3.66334        0.03948       -1.89318
   C       -2.64017        2.00326        0.22548
   C       -1.96055        3.17647       -0.19368
   C       -0.54741        3.20180       -0.15431
   C       -1.89137        0.89312        0.65571
   C       -0.49884        0.93899        0.68870
   H       -2.37657       -0.00711        0.99873
   C        0.17062        2.08995        0.28611
   H        0.02685        4.05842       -0.46558
   H        1.25248        2.12025        0.31158
   H        0.06285        0.07974        1.03214
   O       -2.70279        4.22178       -0.65633
   C       -2.30180        5.47126       -1.09269
   H       -1.21440        5.64649       -1.03465
   H       -2.80313        6.24333       -0.47370
   H       -2.62178        5.60418       -2.14647
   O       -5.51312        4.16133       -2.38466
   H       -4.94380        3.35305       -2.44030
*

