# avogadro generated ORCA input file 
# Basic Mode
# 
! wB97X-D3 OPT def2-TZVP def2/J CPCM
%cpcm
  epsilon 3
end
%pal
 nprocs 4
end
 

* xyz 1 1
   C        1.49209        0.13279        0.87825
   N        2.61562       -0.03249       -0.03300
   H        2.05878       -0.15067       -0.89498
   C        3.49301        1.07568       -0.11156
   C        4.78265        0.64417        0.05324
   N        4.74613       -0.74800        0.23004
   C        3.51058       -1.13265        0.17680
   C        3.05274       -2.55203        0.28667
   O        1.87122       -2.82462        0.15558
   O        3.92399       -3.55472        0.50584
   C        5.92206       -1.57240        0.42090
   H        0.88478        1.02390        0.59772
   H        1.86244        0.27947        1.91660
   H        0.81783       -0.74936        0.87320
   H        3.18758        2.10298       -0.26588
   H        5.67225        1.26060        0.04675
   H        6.84080       -0.94771        0.41448
   H        6.00459       -2.31410       -0.40143
   H        5.86652       -2.09294        1.40024
*

